<?xml version="1.0" encoding="UTF-8"?>

<!-- generated on 2023-12-03 23:07:04 by Eclipse SUMO netedit Version 1.18.0
<configuration xmlns:xsi="http://www.w3.org/2001/XMLSchema-instance" xsi:noNamespaceSchemaLocation="http://sumo.dlr.de/xsd/neteditConfiguration.xsd">

    <input>
        <sumo-net-file value="C:\Users\ksg\OneDrive\Desktop\sumo최종\origin.net.xml"/>
    </input>

    <output>
        <output-file value="C:\Users\ksg\OneDrive\Desktop\sumo최종\origin.net.xml"/>
        <output.street-names value="true"/>
    </output>

    <processing>
        <geometry.min-radius.fix.railways value="false"/>
        <geometry.max-grade.fix value="false"/>
        <offset.disable-normalization value="true"/>
        <lefthand value="0"/>
    </processing>

    <junctions>
        <no-turnarounds value="true"/>
        <junctions.corner-detail value="5"/>
        <junctions.limit-turn-speed value="5.50"/>
        <rectangular-lane-cut value="0"/>
    </junctions>

    <pedestrian>
        <walkingareas value="0"/>
    </pedestrian>

</configuration>
-->

<net version="1.16" junctionCornerDetail="5" limitTurnSpeed="5.50" xmlns:xsi="http://www.w3.org/2001/XMLSchema-instance" xsi:noNamespaceSchemaLocation="http://sumo.dlr.de/xsd/net_file.xsd">

    <location netOffset="-506481.23,-3892218.36" convBoundary="69.50,108.88,1623.19,2097.89" origBoundary="129.059146,35.155353,129.115056,35.196752" projParameter="+proj=utm +zone=52 +ellps=WGS84 +datum=WGS84 +units=m +no_defs"/>

    <type id="highway.residential" priority="3" numLanes="1" speed="13.89" disallow="tram rail_urban rail rail_electric rail_fast ship" oneway="0"/>
    <type id="highway.secondary" priority="11" numLanes="1" speed="27.78" disallow="tram rail_urban rail rail_electric rail_fast ship" oneway="0"/>
    <type id="highway.secondary_link" priority="6" numLanes="1" speed="22.22" disallow="tram rail_urban rail rail_electric rail_fast ship" oneway="0"/>

    <edge id=":10213534066_0" function="internal">
        <lane id=":10213534066_0_0" index="0" disallow="tram rail_urban rail rail_electric rail_fast ship" speed="3.65" length="4.67" shape="1100.30,1081.67 1101.45,1080.79 1102.33,1080.68 1102.96,1081.32 1103.32,1082.71"/>
    </edge>
    <edge id=":10314759012_0" function="internal">
        <lane id=":10314759012_0_0" index="0" disallow="tram rail_urban rail rail_electric rail_fast ship" speed="3.65" length="4.67" shape="1438.31,1413.89 1439.55,1414.63 1439.99,1415.41 1439.63,1416.23 1438.47,1417.09"/>
    </edge>
    <edge id=":1768492945_0" function="internal">
        <lane id=":1768492945_0_0" index="0" disallow="tram rail_urban rail rail_electric rail_fast ship" speed="11.70" length="12.27" shape="954.71,1526.11 952.13,1527.95 950.31,1529.54 949.03,1531.57 948.08,1534.76"/>
        <lane id=":1768492945_0_1" index="1" disallow="tram rail_urban rail rail_electric rail_fast ship" speed="12.62" length="12.27" shape="954.71,1526.11 951.67,1527.73 948.81,1528.89 946.46,1530.66 944.95,1534.09"/>
    </edge>
    <edge id=":1768492945_2" function="internal">
        <lane id=":1768492945_2_0" index="0" disallow="tram rail_urban rail rail_electric rail_fast ship" speed="16.67" length="16.96" shape="951.20,1518.69 949.43,1523.30 947.80,1526.32 946.31,1529.37 944.95,1534.09"/>
        <lane id=":1768492945_2_1" index="1" disallow="tram rail_urban rail rail_electric rail_fast ship" speed="16.67" length="16.96" shape="948.14,1517.75 946.35,1522.44 944.71,1525.51 943.20,1528.62 941.82,1533.42"/>
        <lane id=":1768492945_2_2" index="2" disallow="tram rail_urban rail rail_electric rail_fast ship" speed="16.67" length="16.96" shape="945.08,1516.80 943.27,1521.58 941.61,1524.71 940.09,1527.87 938.69,1532.76"/>
    </edge>
    <edge id=":1768492945_5" function="internal">
        <lane id=":1768492945_5_0" index="0" disallow="tram rail_urban rail rail_electric rail_fast ship" speed="16.63" length="18.40" shape="926.17,1530.09 926.89,1524.23 926.50,1519.56 925.37,1515.70 923.88,1512.22"/>
    </edge>
    <edge id=":1768492945_6" function="internal">
        <lane id=":1768492945_6_0" index="0" disallow="tram rail_urban rail rail_electric rail_fast ship" speed="16.67" length="17.87" shape="926.17,1530.09 927.16,1524.73 927.68,1521.02 928.35,1517.34 929.79,1512.09"/>
        <lane id=":1768492945_6_1" index="1" disallow="tram rail_urban rail rail_electric rail_fast ship" speed="16.67" length="17.87" shape="929.30,1530.76 930.27,1525.48 930.78,1521.82 931.44,1518.20 932.85,1513.03"/>
        <lane id=":1768492945_6_2" index="2" disallow="tram rail_urban rail rail_electric rail_fast ship" speed="16.67" length="17.87" shape="932.43,1531.43 933.38,1526.22 933.88,1522.63 934.52,1519.07 935.91,1513.98"/>
        <lane id=":1768492945_6_3" index="3" disallow="tram rail_urban rail rail_electric rail_fast ship" speed="16.67" length="17.87" shape="935.56,1532.09 936.50,1526.97 936.98,1523.43 937.60,1519.93 938.97,1514.92"/>
        <lane id=":1768492945_6_4" index="4" disallow="tram rail_urban rail rail_electric rail_fast ship" speed="16.67" length="17.87" shape="935.56,1532.09 936.97,1527.13 938.51,1523.90 940.18,1520.72 942.02,1515.86"/>
    </edge>
    <edge id=":1768492945_11" function="internal">
        <lane id=":1768492945_11_0" index="0" disallow="tram rail_urban rail rail_electric rail_fast ship" speed="3.65" length="1.44" shape="935.56,1532.09 936.59,1531.08"/>
    </edge>
    <edge id=":1768492945_12" function="internal">
        <lane id=":1768492945_12_0" index="0" disallow="tram rail_urban rail rail_electric rail_fast ship" speed="3.65" length="3.23" shape="936.59,1531.08 937.46,1530.86 938.16,1531.42 938.69,1532.76"/>
    </edge>
    <edge id=":1768492964_0" function="internal">
        <lane id=":1768492964_0_0" index="0" disallow="tram rail_urban rail rail_electric rail_fast ship" speed="13.37" length="17.62" shape="998.43,1408.53 996.79,1414.13 996.01,1418.86 996.08,1422.72 997.01,1425.71"/>
    </edge>
    <edge id=":1768492964_1" function="internal">
        <lane id=":1768492964_1_0" index="0" disallow="tram rail_urban rail rail_electric rail_fast ship" speed="27.78" length="17.10" shape="998.43,1408.53 996.87,1413.57 995.92,1417.07 994.73,1420.47 992.45,1425.20"/>
        <lane id=":1768492964_1_1" index="1" disallow="tram rail_urban rail rail_electric rail_fast ship" speed="27.78" length="17.10" shape="995.40,1407.49 993.89,1412.39 992.97,1415.80 991.83,1419.11 989.62,1423.71"/>
        <lane id=":1768492964_1_2" index="2" disallow="tram rail_urban rail rail_electric rail_fast ship" speed="27.78" length="17.10" shape="992.37,1406.46 990.91,1411.21 990.03,1414.53 988.93,1417.74 986.79,1422.21"/>
        <lane id=":1768492964_1_3" index="3" disallow="tram rail_urban rail rail_electric rail_fast ship" speed="27.78" length="17.10" shape="992.37,1406.46 990.47,1410.96 988.61,1413.78 986.53,1416.50 983.96,1420.71"/>
    </edge>
    <edge id=":1768492964_5" function="internal">
        <lane id=":1768492964_5_0" index="0" disallow="tram rail_urban rail rail_electric rail_fast ship" speed="3.65" length="1.44" shape="992.37,1406.46 991.23,1407.33"/>
    </edge>
    <edge id=":1768492964_10" function="internal">
        <lane id=":1768492964_10_0" index="0" disallow="tram rail_urban rail rail_electric rail_fast ship" speed="3.65" length="3.23" shape="991.23,1407.33 990.34,1407.45 989.72,1406.81 989.35,1405.42"/>
    </edge>
    <edge id=":1768492964_6" function="internal">
        <lane id=":1768492964_6_0" index="0" disallow="tram rail_urban rail rail_electric rail_fast ship" speed="10.31" length="10.39" shape="974.81,1409.07 978.22,1407.43 980.78,1405.93 982.47,1404.57 983.29,1403.35"/>
    </edge>
    <edge id=":1768492964_7" function="internal">
        <lane id=":1768492964_7_0" index="0" disallow="tram rail_urban rail rail_electric rail_fast ship" speed="27.78" length="15.63" shape="975.48,1416.22 977.84,1412.40 979.79,1409.96 981.54,1407.43 983.29,1403.35"/>
        <lane id=":1768492964_7_1" index="1" disallow="tram rail_urban rail rail_electric rail_fast ship" speed="27.78" length="15.63" shape="978.30,1417.72 980.74,1413.77 982.73,1411.23 984.52,1408.60 986.32,1404.38"/>
        <lane id=":1768492964_7_2" index="2" disallow="tram rail_urban rail rail_electric rail_fast ship" speed="27.78" length="15.63" shape="981.13,1419.21 983.64,1415.13 985.67,1412.50 987.49,1409.78 989.35,1405.42"/>
    </edge>
    <edge id=":1768493018_0" function="internal">
        <lane id=":1768493018_0_0" index="0" disallow="tram rail_urban rail rail_electric rail_fast ship" speed="12.05" length="15.64" shape="1007.02,1513.42 1005.35,1512.72 1002.21,1512.43 997.62,1512.55 991.56,1513.08"/>
    </edge>
    <edge id=":1768493018_1" function="internal">
        <lane id=":1768493018_1_0" index="0" disallow="tram rail_urban rail rail_electric rail_fast ship" speed="27.78" length="24.51" shape="1007.02,1513.42 1001.83,1509.83 996.78,1508.02 991.38,1505.90 985.19,1501.35"/>
        <lane id=":1768493018_1_1" index="1" disallow="tram rail_urban rail rail_electric rail_fast ship" speed="27.78" length="24.51" shape="1007.02,1513.42 1002.15,1509.44 997.80,1506.79 993.16,1503.86 987.40,1499.04"/>
        <lane id=":1768493018_1_2" index="2" disallow="tram rail_urban rail rail_electric rail_fast ship" speed="27.78" length="24.51" shape="1009.24,1511.11 1004.36,1507.13 1000.01,1504.48 995.37,1501.55 989.62,1496.73"/>
        <lane id=":1768493018_1_3" index="3" disallow="tram rail_urban rail rail_electric rail_fast ship" speed="27.78" length="24.51" shape="1009.24,1511.11 991.83,1494.42"/>
    </edge>
    <edge id=":1768493018_5" function="internal">
        <lane id=":1768493018_5_0" index="0" disallow="tram rail_urban rail rail_electric rail_fast ship" speed="3.65" length="1.44" shape="1009.24,1511.11 1008.93,1509.70"/>
    </edge>
    <edge id=":1768493018_10" function="internal">
        <lane id=":1768493018_10_0" index="0" disallow="tram rail_urban rail rail_electric rail_fast ship" speed="3.65" length="3.23" shape="1008.93,1509.70 1009.19,1508.85 1010.03,1508.55 1011.45,1508.80"/>
    </edge>
    <edge id=":1768493018_6" function="internal">
        <lane id=":1768493018_6_0" index="0" disallow="tram rail_urban rail rail_electric rail_fast ship" speed="13.87" length="23.52" shape="1002.90,1485.19 1003.40,1488.53 1005.73,1492.81 1009.89,1498.02 1015.89,1504.19"/>
    </edge>
    <edge id=":1768493018_7" function="internal">
        <lane id=":1768493018_7_0" index="0" disallow="tram rail_urban rail rail_electric rail_fast ship" speed="27.78" length="24.12" shape="998.48,1487.49 1015.89,1504.19"/>
        <lane id=":1768493018_7_1" index="1" disallow="tram rail_urban rail rail_electric rail_fast ship" speed="27.78" length="24.12" shape="996.26,1489.80 1013.67,1506.49"/>
        <lane id=":1768493018_7_2" index="2" disallow="tram rail_urban rail rail_electric rail_fast ship" speed="27.78" length="24.12" shape="994.05,1492.11 1011.45,1508.80"/>
    </edge>
    <edge id=":1772207751_0" function="internal">
        <lane id=":1772207751_0_0" index="0" disallow="tram rail_urban rail rail_electric rail_fast ship" speed="3.65" length="4.67" shape="478.66,1522.53 477.22,1522.56 476.44,1522.13 476.31,1521.25 476.84,1519.91"/>
    </edge>
    <edge id=":1772207756_0" function="internal">
        <lane id=":1772207756_0_0" index="0" disallow="tram rail_urban rail rail_electric rail_fast ship" speed="3.65" length="4.67" shape="506.15,1570.27 504.71,1570.26 503.93,1569.81 503.83,1568.92 504.39,1567.59"/>
    </edge>
    <edge id=":1772207768_0" function="internal">
        <lane id=":1772207768_0_0" index="0" disallow="tram rail_urban rail rail_electric rail_fast ship" speed="6.51" length="9.01" shape="783.13,1327.60 781.49,1325.76 779.64,1324.88 777.61,1324.98 775.38,1326.03"/>
    </edge>
    <edge id=":1772207768_1" function="internal">
        <lane id=":1772207768_1_0" index="0" disallow="tram rail_urban rail rail_electric rail_fast ship" speed="13.89" length="14.35" shape="783.13,1327.60 775.24,1315.61"/>
    </edge>
    <edge id=":1772207768_2" function="internal">
        <lane id=":1772207768_2_0" index="0" disallow="tram rail_urban rail rail_electric rail_fast ship" speed="3.65" length="1.44" shape="783.13,1327.60 783.13,1326.15"/>
    </edge>
    <edge id=":1772207768_9" function="internal">
        <lane id=":1772207768_9_0" index="0" disallow="tram rail_urban rail rail_electric rail_fast ship" speed="3.65" length="3.23" shape="783.13,1326.15 783.57,1325.38 784.46,1325.27 785.79,1325.82"/>
    </edge>
    <edge id=":1772207768_3" function="internal">
        <lane id=":1772207768_3_0" index="0" disallow="tram rail_urban rail rail_electric rail_fast ship" speed="13.89" length="14.31" shape="777.92,1313.87 785.79,1325.82"/>
    </edge>
    <edge id=":1772207768_4" function="internal">
        <lane id=":1772207768_4_0" index="0" disallow="tram rail_urban rail rail_electric rail_fast ship" speed="8.02" length="4.01" shape="777.92,1313.87 779.55,1317.38 779.55,1317.51"/>
    </edge>
    <edge id=":1772207768_5" function="internal">
        <lane id=":1772207768_5_0" index="0" disallow="tram rail_urban rail rail_electric rail_fast ship" speed="3.65" length="1.44" shape="777.92,1313.87 777.91,1315.31"/>
    </edge>
    <edge id=":1772207768_10" function="internal">
        <lane id=":1772207768_10_0" index="0" disallow="tram rail_urban rail rail_electric rail_fast ship" speed="8.02" length="10.14" shape="779.55,1317.51 779.67,1320.57 778.28,1323.46 775.38,1326.03"/>
    </edge>
    <edge id=":1772207768_11" function="internal">
        <lane id=":1772207768_11_0" index="0" disallow="tram rail_urban rail rail_electric rail_fast ship" speed="3.65" length="3.23" shape="777.91,1315.31 777.45,1316.08 776.56,1316.18 775.24,1315.61"/>
    </edge>
    <edge id=":1772207768_6" function="internal">
        <lane id=":1772207768_6_0" index="0" disallow="tram rail_urban rail rail_electric rail_fast ship" speed="6.52" length="9.02" shape="773.61,1323.37 775.46,1321.72 776.35,1319.88 776.28,1317.85 775.24,1315.61"/>
    </edge>
    <edge id=":1772207768_7" function="internal">
        <lane id=":1772207768_7_0" index="0" disallow="tram rail_urban rail rail_electric rail_fast ship" speed="8.00" length="14.16" shape="773.61,1323.37 777.12,1321.70 780.31,1321.56 783.21,1322.93 785.79,1325.82"/>
    </edge>
    <edge id=":1772207768_8" function="internal">
        <lane id=":1772207768_8_0" index="0" disallow="tram rail_urban rail rail_electric rail_fast ship" speed="3.65" length="4.67" shape="773.61,1323.37 775.06,1323.37 775.83,1323.82 775.94,1324.70 775.38,1326.03"/>
    </edge>
    <edge id=":1772207769_0" function="internal">
        <lane id=":1772207769_0_0" index="0" disallow="tram rail_urban rail rail_electric rail_fast ship" speed="6.48" length="9.03" shape="682.77,1394.09 681.14,1392.23 679.30,1391.35 677.26,1391.44 675.03,1392.52"/>
    </edge>
    <edge id=":1772207769_1" function="internal">
        <lane id=":1772207769_1_0" index="0" disallow="tram rail_urban rail rail_electric rail_fast ship" speed="13.89" length="14.45" shape="682.77,1394.09 674.86,1382.00"/>
    </edge>
    <edge id=":1772207769_2" function="internal">
        <lane id=":1772207769_2_0" index="0" disallow="tram rail_urban rail rail_electric rail_fast ship" speed="8.03" length="4.08" shape="682.77,1394.09 681.12,1390.56 681.11,1390.38"/>
    </edge>
    <edge id=":1772207769_3" function="internal">
        <lane id=":1772207769_3_0" index="0" disallow="tram rail_urban rail rail_electric rail_fast ship" speed="3.65" length="1.44" shape="682.77,1394.09 682.79,1392.65"/>
    </edge>
    <edge id=":1772207769_16" function="internal">
        <lane id=":1772207769_16_0" index="0" disallow="tram rail_urban rail rail_electric rail_fast ship" speed="8.03" length="10.16" shape="681.11,1390.38 680.98,1387.34 682.37,1384.43 685.28,1381.84"/>
    </edge>
    <edge id=":1772207769_17" function="internal">
        <lane id=":1772207769_17_0" index="0" disallow="tram rail_urban rail rail_electric rail_fast ship" speed="3.65" length="3.23" shape="682.79,1392.65 683.24,1391.88 684.12,1391.77 685.45,1392.34"/>
    </edge>
    <edge id=":1772207769_4" function="internal">
        <lane id=":1772207769_4_0" index="0" disallow="tram rail_urban rail rail_electric rail_fast ship" speed="6.54" length="9.10" shape="687.05,1384.51 685.19,1386.16 684.31,1388.02 684.39,1390.08 685.45,1392.34"/>
    </edge>
    <edge id=":1772207769_5" function="internal">
        <lane id=":1772207769_5_0" index="0" disallow="tram rail_urban rail rail_electric rail_fast ship" speed="13.89" length="14.44" shape="687.05,1384.51 675.03,1392.52"/>
    </edge>
    <edge id=":1772207769_6" function="internal">
        <lane id=":1772207769_6_0" index="0" disallow="tram rail_urban rail rail_electric rail_fast ship" speed="7.99" length="14.21" shape="687.05,1384.51 683.53,1386.18 680.32,1386.32 677.43,1384.92 674.86,1382.00"/>
    </edge>
    <edge id=":1772207769_7" function="internal">
        <lane id=":1772207769_7_0" index="0" disallow="tram rail_urban rail rail_electric rail_fast ship" speed="3.65" length="4.67" shape="687.05,1384.51 685.61,1384.51 684.83,1384.06 684.73,1383.17 685.28,1381.84"/>
    </edge>
    <edge id=":1772207769_8" function="internal">
        <lane id=":1772207769_8_0" index="0" disallow="tram rail_urban rail rail_electric rail_fast ship" speed="6.50" length="9.03" shape="677.54,1380.25 679.17,1382.11 681.01,1382.99 683.05,1382.90 685.28,1381.84"/>
    </edge>
    <edge id=":1772207769_9" function="internal">
        <lane id=":1772207769_9_0" index="0" disallow="tram rail_urban rail rail_electric rail_fast ship" speed="13.89" length="14.45" shape="677.54,1380.25 685.45,1392.34"/>
    </edge>
    <edge id=":1772207769_10" function="internal">
        <lane id=":1772207769_10_0" index="0" disallow="tram rail_urban rail rail_electric rail_fast ship" speed="8.05" length="4.07" shape="677.54,1380.25 679.19,1383.77 679.19,1383.95"/>
    </edge>
    <edge id=":1772207769_11" function="internal">
        <lane id=":1772207769_11_0" index="0" disallow="tram rail_urban rail rail_electric rail_fast ship" speed="3.65" length="1.44" shape="677.54,1380.25 677.52,1381.69"/>
    </edge>
    <edge id=":1772207769_18" function="internal">
        <lane id=":1772207769_18_0" index="0" disallow="tram rail_urban rail rail_electric rail_fast ship" speed="8.05" length="10.18" shape="679.19,1383.95 679.32,1386.99 677.93,1389.91 675.03,1392.52"/>
    </edge>
    <edge id=":1772207769_19" function="internal">
        <lane id=":1772207769_19_0" index="0" disallow="tram rail_urban rail rail_electric rail_fast ship" speed="3.65" length="3.23" shape="677.52,1381.69 677.07,1382.46 676.19,1382.56 674.86,1382.00"/>
    </edge>
    <edge id=":1772207769_12" function="internal">
        <lane id=":1772207769_12_0" index="0" disallow="tram rail_urban rail rail_electric rail_fast ship" speed="6.56" length="9.13" shape="673.25,1389.86 675.11,1388.19 676.00,1386.32 675.92,1384.26 674.86,1382.00"/>
    </edge>
    <edge id=":1772207769_13" function="internal">
        <lane id=":1772207769_13_0" index="0" disallow="tram rail_urban rail rail_electric rail_fast ship" speed="13.89" length="14.46" shape="673.25,1389.86 685.28,1381.84"/>
    </edge>
    <edge id=":1772207769_14" function="internal">
        <lane id=":1772207769_14_0" index="0" disallow="tram rail_urban rail rail_electric rail_fast ship" speed="7.98" length="14.24" shape="673.25,1389.86 676.77,1388.17 679.98,1388.02 682.87,1389.41 685.45,1392.34"/>
    </edge>
    <edge id=":1772207769_15" function="internal">
        <lane id=":1772207769_15_0" index="0" disallow="tram rail_urban rail rail_electric rail_fast ship" speed="3.65" length="4.67" shape="673.25,1389.86 674.69,1389.86 675.47,1390.30 675.58,1391.19 675.03,1392.52"/>
    </edge>
    <edge id=":1772207776_0" function="internal">
        <lane id=":1772207776_0_0" index="0" disallow="tram rail_urban rail rail_electric rail_fast ship" speed="3.65" length="4.67" shape="519.66,1593.37 518.23,1593.15 517.54,1592.59 517.57,1591.69 518.32,1590.47"/>
    </edge>
    <edge id=":1772207783_0" function="internal">
        <lane id=":1772207783_0_0" index="0" disallow="tram rail_urban rail rail_electric rail_fast ship" speed="6.51" length="9.03" shape="713.39,1440.88 711.75,1439.02 709.92,1438.14 707.88,1438.22 705.64,1439.27"/>
    </edge>
    <edge id=":1772207783_1" function="internal">
        <lane id=":1772207783_1_0" index="0" disallow="tram rail_urban rail rail_electric rail_fast ship" speed="13.89" length="14.41" shape="713.39,1440.88 705.50,1428.83"/>
    </edge>
    <edge id=":1772207783_2" function="internal">
        <lane id=":1772207783_2_0" index="0" disallow="tram rail_urban rail rail_electric rail_fast ship" speed="8.01" length="14.20" shape="713.39,1440.88 711.74,1437.36 711.61,1434.15 713.01,1431.26 715.92,1428.69"/>
    </edge>
    <edge id=":1772207783_3" function="internal">
        <lane id=":1772207783_3_0" index="0" disallow="tram rail_urban rail rail_electric rail_fast ship" speed="3.65" length="4.67" shape="713.39,1440.88 713.40,1439.44 713.85,1438.67 714.74,1438.56 716.07,1439.13"/>
    </edge>
    <edge id=":1772207783_4" function="internal">
        <lane id=":1772207783_4_0" index="0" disallow="tram rail_urban rail rail_electric rail_fast ship" speed="6.51" length="9.04" shape="717.68,1431.36 715.82,1433.00 714.93,1434.84 715.01,1436.89 716.07,1439.13"/>
    </edge>
    <edge id=":1772207783_5" function="internal">
        <lane id=":1772207783_5_0" index="0" disallow="tram rail_urban rail rail_electric rail_fast ship" speed="13.89" length="14.41" shape="717.68,1431.36 705.64,1439.27"/>
    </edge>
    <edge id=":1772207783_6" function="internal">
        <lane id=":1772207783_6_0" index="0" disallow="tram rail_urban rail rail_electric rail_fast ship" speed="8.00" length="4.07" shape="717.68,1431.36 714.16,1433.02 713.98,1433.02"/>
    </edge>
    <edge id=":1772207783_7" function="internal">
        <lane id=":1772207783_7_0" index="0" disallow="tram rail_urban rail rail_electric rail_fast ship" speed="3.65" length="1.44" shape="717.68,1431.36 716.24,1431.35"/>
    </edge>
    <edge id=":1772207783_16" function="internal">
        <lane id=":1772207783_16_0" index="0" disallow="tram rail_urban rail rail_electric rail_fast ship" speed="8.00" length="10.13" shape="713.98,1433.02 710.95,1433.15 708.07,1431.75 705.50,1428.83"/>
    </edge>
    <edge id=":1772207783_17" function="internal">
        <lane id=":1772207783_17_0" index="0" disallow="tram rail_urban rail rail_electric rail_fast ship" speed="3.65" length="3.23" shape="716.24,1431.35 715.47,1430.90 715.36,1430.01 715.92,1428.69"/>
    </edge>
    <edge id=":1772207783_8" function="internal">
        <lane id=":1772207783_8_0" index="0" disallow="tram rail_urban rail rail_electric rail_fast ship" speed="6.50" length="9.03" shape="708.17,1427.07 709.81,1428.93 711.65,1429.82 713.68,1429.74 715.92,1428.69"/>
    </edge>
    <edge id=":1772207783_9" function="internal">
        <lane id=":1772207783_9_0" index="0" disallow="tram rail_urban rail rail_electric rail_fast ship" speed="13.89" length="14.41" shape="708.17,1427.07 716.07,1439.13"/>
    </edge>
    <edge id=":1772207783_10" function="internal">
        <lane id=":1772207783_10_0" index="0" disallow="tram rail_urban rail rail_electric rail_fast ship" speed="8.01" length="14.20" shape="708.17,1427.07 709.82,1430.60 709.95,1433.81 708.55,1436.70 705.64,1439.27"/>
    </edge>
    <edge id=":1772207783_11" function="internal">
        <lane id=":1772207783_11_0" index="0" disallow="tram rail_urban rail rail_electric rail_fast ship" speed="3.65" length="4.67" shape="708.17,1427.07 708.16,1428.52 707.71,1429.29 706.82,1429.39 705.50,1428.83"/>
    </edge>
    <edge id=":1772207783_12" function="internal">
        <lane id=":1772207783_12_0" index="0" disallow="tram rail_urban rail rail_electric rail_fast ship" speed="6.52" length="9.05" shape="703.88,1436.60 705.74,1434.96 706.63,1433.12 706.55,1431.07 705.50,1428.83"/>
    </edge>
    <edge id=":1772207783_13" function="internal">
        <lane id=":1772207783_13_0" index="0" disallow="tram rail_urban rail rail_electric rail_fast ship" speed="13.89" length="14.41" shape="703.88,1436.60 715.92,1428.69"/>
    </edge>
    <edge id=":1772207783_14" function="internal">
        <lane id=":1772207783_14_0" index="0" disallow="tram rail_urban rail rail_electric rail_fast ship" speed="8.00" length="4.07" shape="703.88,1436.60 707.40,1434.94 707.58,1434.93"/>
    </edge>
    <edge id=":1772207783_15" function="internal">
        <lane id=":1772207783_15_0" index="0" disallow="tram rail_urban rail rail_electric rail_fast ship" speed="3.65" length="1.44" shape="703.88,1436.60 705.32,1436.61"/>
    </edge>
    <edge id=":1772207783_18" function="internal">
        <lane id=":1772207783_18_0" index="0" disallow="tram rail_urban rail rail_electric rail_fast ship" speed="8.00" length="10.13" shape="707.58,1434.93 710.61,1434.81 713.49,1436.21 716.07,1439.13"/>
    </edge>
    <edge id=":1772207783_19" function="internal">
        <lane id=":1772207783_19_0" index="0" disallow="tram rail_urban rail rail_electric rail_fast ship" speed="3.65" length="3.23" shape="705.32,1436.61 706.10,1437.06 706.20,1437.94 705.64,1439.27"/>
    </edge>
    <edge id=":1772207792_0" function="internal">
        <lane id=":1772207792_0_0" index="0" disallow="tram rail_urban rail rail_electric rail_fast ship" speed="6.47" length="9.03" shape="816.68,1462.64 815.35,1460.54 813.67,1459.39 811.65,1459.17 809.28,1459.90"/>
    </edge>
    <edge id=":1772207792_1" function="internal">
        <lane id=":1772207792_1_0" index="0" disallow="tram rail_urban rail rail_electric rail_fast ship" speed="13.89" length="13.44" shape="816.68,1462.64 815.37,1459.36 814.57,1456.23 814.36,1453.04 814.82,1449.59"/>
    </edge>
    <edge id=":1772207792_2" function="internal">
        <lane id=":1772207792_2_0" index="0" disallow="tram rail_urban rail rail_electric rail_fast ship" speed="3.65" length="1.44" shape="816.68,1462.64 816.92,1461.21"/>
    </edge>
    <edge id=":1772207792_9" function="internal">
        <lane id=":1772207792_9_0" index="0" disallow="tram rail_urban rail rail_electric rail_fast ship" speed="3.65" length="3.23" shape="816.92,1461.21 817.48,1460.52 818.38,1460.56 819.60,1461.32"/>
    </edge>
    <edge id=":1772207792_3" function="internal">
        <lane id=":1772207792_3_0" index="0" disallow="tram rail_urban rail rail_electric rail_fast ship" speed="12.98" length="11.44" shape="817.94,1450.29 817.45,1453.43 817.59,1455.93 818.32,1458.36 819.60,1461.32"/>
    </edge>
    <edge id=":1772207792_4" function="internal">
        <lane id=":1772207792_4_0" index="0" disallow="tram rail_urban rail rail_electric rail_fast ship" speed="10.87" length="3.11" shape="817.94,1450.29 816.88,1453.22"/>
    </edge>
    <edge id=":1772207792_5" function="internal">
        <lane id=":1772207792_5_0" index="0" disallow="tram rail_urban rail rail_electric rail_fast ship" speed="3.65" length="1.44" shape="817.94,1450.29 816.90,1451.29"/>
    </edge>
    <edge id=":1772207792_10" function="internal">
        <lane id=":1772207792_10_0" index="0" disallow="tram rail_urban rail rail_electric rail_fast ship" speed="10.87" length="10.29" shape="816.88,1453.22 815.08,1455.79 812.55,1458.02 809.28,1459.90"/>
    </edge>
    <edge id=":1772207792_11" function="internal">
        <lane id=":1772207792_11_0" index="0" disallow="tram rail_urban rail rail_electric rail_fast ship" speed="3.65" length="3.23" shape="816.90,1451.29 816.03,1451.50 815.34,1450.94 814.82,1449.59"/>
    </edge>
    <edge id=":1772207792_6" function="internal">
        <lane id=":1772207792_6_0" index="0" disallow="tram rail_urban rail rail_electric rail_fast ship" speed="9.66" length="10.49" shape="807.92,1457.00 810.54,1455.51 812.57,1453.78 814.00,1451.80 814.82,1449.59"/>
    </edge>
    <edge id=":1772207792_7" function="internal">
        <lane id=":1772207792_7_0" index="0" disallow="tram rail_urban rail rail_electric rail_fast ship" speed="7.97" length="14.25" shape="807.92,1457.00 811.66,1455.86 814.85,1456.20 817.50,1458.02 819.60,1461.32"/>
    </edge>
    <edge id=":1772207792_8" function="internal">
        <lane id=":1772207792_8_0" index="0" disallow="tram rail_urban rail rail_electric rail_fast ship" speed="3.65" length="4.67" shape="807.92,1457.00 809.34,1457.22 810.05,1457.77 810.02,1458.67 809.28,1459.90"/>
    </edge>
    <edge id=":1772207795_0" function="internal">
        <lane id=":1772207795_0_0" index="0" disallow="tram rail_urban rail rail_electric rail_fast ship" speed="11.12" length="10.94" shape="835.72,1392.39 833.09,1394.15 831.28,1395.70 830.05,1397.65 829.14,1400.60"/>
    </edge>
    <edge id=":1772207795_1" function="internal">
        <lane id=":1772207795_1_0" index="0" disallow="tram rail_urban rail rail_electric rail_fast ship" speed="7.95" length="3.68" shape="835.72,1392.39 832.39,1393.96"/>
    </edge>
    <edge id=":1772207795_2" function="internal">
        <lane id=":1772207795_2_0" index="0" disallow="tram rail_urban rail rail_electric rail_fast ship" speed="3.65" length="1.44" shape="835.72,1392.39 834.28,1392.38"/>
    </edge>
    <edge id=":1772207795_9" function="internal">
        <lane id=":1772207795_9_0" index="0" disallow="tram rail_urban rail rail_electric rail_fast ship" speed="7.95" length="10.62" shape="832.39,1393.96 832.16,1394.07 828.95,1394.18 826.08,1392.73 823.55,1389.71"/>
    </edge>
    <edge id=":1772207795_10" function="internal">
        <lane id=":1772207795_10_0" index="0" disallow="tram rail_urban rail rail_electric rail_fast ship" speed="3.65" length="3.23" shape="834.28,1392.38 833.50,1391.94 833.40,1391.05 833.96,1389.72"/>
    </edge>
    <edge id=":1772207795_3" function="internal">