<?xml version="1.0" encoding="UTF-8"?>

<!-- generated on 2023-12-03 22:57:30 by Eclipse SUMO netedit Version 1.18.0
<configuration xmlns:xsi="http://www.w3.org/2001/XMLSchema-instance" xsi:noNamespaceSchemaLocation="http://sumo.dlr.de/xsd/neteditConfiguration.xsd">

    <input>
        <sumo-net-file value="C:\Users\ksg\OneDrive\Desktop\sumo최종\tmp1.net.xml"/>
    </input>

    <output>
        <output-file value="C:\Users\ksg\OneDrive\Desktop\sumo최종\tmp1.net.xml"/>
        <output.street-names value="true"/>
    </output>

    <processing>
        <geometry.min-radius.fix.railways value="false"/>
        <geometry.max-grade.fix value="false"/>
        <offset.disable-normalization value="true"/>
        <lefthand value="0"/>
    </processing>

    <junctions>
        <no-turnarounds value="true"/>
        <junctions.corner-detail value="5"/>
        <junctions.limit-turn-speed value="5.50"/>
        <rectangular-lane-cut value="0"/>
    </junctions>

    <pedestrian>
        <walkingareas value="0"/>
    </pedestrian>

</configuration>
-->

<net version="1.16" junctionCornerDetail="5" limitTurnSpeed="5.50" xmlns:xsi="http://www.w3.org/2001/XMLSchema-instance" xsi:noNamespaceSchemaLocation="http://sumo.dlr.de/xsd/net_file.xsd">

    <location netOffset="-506481.23,-3892218.36" convBoundary="69.50,108.88,1623.19,2097.89" origBoundary="129.059146,35.155353,129.115056,35.196752" projParameter="+proj=utm +zone=52 +ellps=WGS84 +datum=WGS84 +units=m +no_defs"/>

    <type id="highway.secondary" priority="11" numLanes="1" speed="27.78" disallow="tram rail_urban rail rail_electric rail_fast ship" oneway="0"/>

    <edge id=":10213534066_0" function="internal">
        <lane id=":10213534066_0_0" index="0" disallow="tram rail_urban rail rail_electric rail_fast ship" speed="3.65" length="4.67" shape="1100.30,1081.67 1101.45,1080.79 1102.33,1080.68 1102.96,1081.32 1103.32,1082.71"/>
    </edge>
    <edge id=":10314759012_0" function="internal">
        <lane id=":10314759012_0_0" index="0" disallow="tram rail_urban rail rail_electric rail_fast ship" speed="3.65" length="4.67" shape="1438.31,1413.89 1439.55,1414.63 1439.99,1415.41 1439.63,1416.23 1438.47,1417.09"/>
    </edge>
    <edge id=":1768492945_0" function="internal">
        <lane id=":1768492945_0_0" index="0" disallow="tram rail_urban rail rail_electric rail_fast ship" speed="16.67" length="7.03" shape="942.61,1546.53 942.03,1548.45 941.65,1549.77 941.34,1551.10 940.91,1553.05"/>
        <lane id=":1768492945_0_1" index="1" disallow="tram rail_urban rail rail_electric rail_fast ship" speed="16.67" length="7.03" shape="939.56,1545.59 938.95,1547.59 938.56,1548.96 938.22,1550.35 937.78,1552.39"/>
        <lane id=":1768492945_0_2" index="2" disallow="tram rail_urban rail rail_electric rail_fast ship" speed="16.67" length="7.03" shape="936.50,1544.65 935.86,1546.72 935.46,1548.15 935.11,1549.60 934.65,1551.72"/>
    </edge>
    <edge id=":1768492945_3" function="internal">
        <lane id=":1768492945_3_0" index="0" disallow="tram rail_urban rail rail_electric rail_fast ship" speed="16.67" length="8.69" shape="922.13,1549.06 922.20,1546.36 921.52,1544.46 920.92,1542.58 921.21,1539.94"/>
        <lane id=":1768492945_3_1" index="1" disallow="tram rail_urban rail rail_electric rail_fast ship" speed="16.67" length="8.69" shape="925.26,1549.72 925.31,1547.10 924.62,1545.26 924.00,1543.44 924.27,1540.88"/>
        <lane id=":1768492945_3_2" index="2" disallow="tram rail_urban rail rail_electric rail_fast ship" speed="16.67" length="8.69" shape="928.39,1550.39 928.43,1547.85 927.72,1546.07 927.08,1544.31 927.32,1541.82"/>
        <lane id=":1768492945_3_3" index="3" disallow="tram rail_urban rail rail_electric rail_fast ship" speed="16.67" length="8.69" shape="931.52,1551.05 931.54,1548.59 930.82,1546.87 930.16,1545.17 930.38,1542.76"/>
        <lane id=":1768492945_3_4" index="4" disallow="tram rail_urban rail rail_electric rail_fast ship" speed="16.67" length="8.69" shape="931.52,1551.05 932.00,1548.85 932.36,1547.35 932.78,1545.86 933.44,1543.71"/>
    </edge>
    <edge id=":1768492945_8" function="internal">
        <lane id=":1768492945_8_0" index="0" disallow="tram rail_urban rail rail_electric rail_fast ship" speed="3.65" length="1.44" shape="931.52,1551.05 932.56,1550.05"/>
    </edge>
    <edge id=":1768492945_9" function="internal">
        <lane id=":1768492945_9_0" index="0" disallow="tram rail_urban rail rail_electric rail_fast ship" speed="3.65" length="3.23" shape="932.56,1550.05 933.42,1549.82 934.12,1550.38 934.65,1551.72"/>
    </edge>
    <edge id=":1768492964_0" function="internal">
        <lane id=":1768492964_0_0" index="0" disallow="tram rail_urban rail rail_electric rail_fast ship" speed="27.78" length="8.08" shape="1001.11,1400.69 1000.76,1403.25 1001.20,1405.15 1001.52,1407.00 1000.80,1409.41"/>
        <lane id=":1768492964_0_1" index="1" disallow="tram rail_urban rail rail_electric rail_fast ship" speed="27.78" length="8.08" shape="998.09,1399.65 997.78,1402.08 998.26,1403.88 998.62,1405.63 997.98,1407.91"/>
        <lane id=":1768492964_0_2" index="2" disallow="tram rail_urban rail rail_electric rail_fast ship" speed="27.78" length="8.08" shape="995.06,1398.61 994.80,1400.91 995.31,1402.61 995.73,1404.26 995.15,1406.42"/>
        <lane id=":1768492964_0_3" index="3" disallow="tram rail_urban rail rail_electric rail_fast ship" speed="27.78" length="8.08" shape="995.06,1398.61 994.39,1400.54 993.88,1401.85 993.27,1403.11 992.32,1404.92"/>
    </edge>
    <edge id=":1768492964_4" function="internal">
        <lane id=":1768492964_4_0" index="0" disallow="tram rail_urban rail rail_electric rail_fast ship" speed="3.65" length="1.44" shape="995.06,1398.61 993.91,1399.49"/>
    </edge>
    <edge id=":1768492964_8" function="internal">
        <lane id=":1768492964_8_0" index="0" disallow="tram rail_urban rail rail_electric rail_fast ship" speed="3.65" length="3.23" shape="993.91,1399.49 993.03,1399.61 992.40,1398.97 992.03,1397.58"/>
    </edge>
    <edge id=":1768492964_5" function="internal">
        <lane id=":1768492964_5_0" index="0" disallow="tram rail_urban rail rail_electric rail_fast ship" speed="27.78" length="5.88" shape="983.84,1400.43 984.58,1399.02 985.05,1398.03 985.45,1397.01 985.98,1395.50"/>
        <lane id=":1768492964_5_1" index="1" disallow="tram rail_urban rail rail_electric rail_fast ship" speed="27.78" length="5.88" shape="986.66,1401.93 987.48,1400.38 987.99,1399.30 988.43,1398.19 989.00,1396.54"/>
        <lane id=":1768492964_5_2" index="2" disallow="tram rail_urban rail rail_electric rail_fast ship" speed="27.78" length="5.88" shape="989.49,1403.42 990.37,1401.75 990.93,1400.57 991.41,1399.37 992.03,1397.58"/>
    </edge>
    <edge id=":1768493018_0" function="internal">
        <lane id=":1768493018_0_0" index="0" disallow="tram rail_urban rail rail_electric rail_fast ship" speed="27.78" length="9.12" shape="1010.93,1517.17 1008.30,1516.03 1005.83,1516.71 1003.36,1517.40 1000.73,1516.25"/>
        <lane id=":1768493018_0_1" index="1" disallow="tram rail_urban rail rail_electric rail_fast ship" speed="27.78" length="9.12" shape="1010.93,1517.17 1008.81,1515.83 1006.94,1515.56 1005.07,1515.29 1002.95,1513.95"/>
        <lane id=":1768493018_0_2" index="2" disallow="tram rail_urban rail rail_electric rail_fast ship" speed="27.78" length="9.12" shape="1013.15,1514.86 1011.03,1513.52 1009.15,1513.25 1007.28,1512.98 1005.16,1511.64"/>
        <lane id=":1768493018_0_3" index="3" disallow="tram rail_urban rail rail_electric rail_fast ship" speed="27.78" length="9.12" shape="1013.15,1514.86 1007.38,1509.33"/>
    </edge>
    <edge id=":1768493018_4" function="internal">
        <lane id=":1768493018_4_0" index="0" disallow="tram rail_urban rail rail_electric rail_fast ship" speed="3.65" length="1.44" shape="1013.15,1514.86 1012.84,1513.46"/>
    </edge>
    <edge id=":1768493018_8" function="internal">
        <lane id=":1768493018_8_0" index="0" disallow="tram rail_urban rail rail_electric rail_fast ship" speed="3.65" length="3.23" shape="1012.84,1513.46 1013.10,1512.60 1013.94,1512.30 1015.36,1512.56"/>
    </edge>
    <edge id=":1768493018_5" function="internal">
        <lane id=":1768493018_5_0" index="0" disallow="tram rail_urban rail rail_electric rail_fast ship" speed="27.78" length="8.00" shape="1014.02,1502.40 1019.80,1507.94"/>
        <lane id=":1768493018_5_1" index="1" disallow="tram rail_urban rail rail_electric rail_fast ship" speed="27.78" length="8.00" shape="1011.81,1504.71 1017.58,1510.25"/>
        <lane id=":1768493018_5_2" index="2" disallow="tram rail_urban rail rail_electric rail_fast ship" speed="27.78" length="8.00" shape="1009.59,1507.02 1015.36,1512.56"/>
    </edge>
    <edge id=":1772207801_0" function="internal">
        <lane id=":1772207801_0_0" index="0" disallow="tram rail_urban rail rail_electric rail_fast ship" speed="16.67" length="0.10" shape="875.19,1363.85 875.19,1363.85"/>
        <lane id=":1772207801_0_1" index="1" disallow="tram rail_urban rail rail_electric rail_fast ship" speed="16.67" length="0.10" shape="877.85,1362.07 877.85,1362.07"/>
        <lane id=":1772207801_0_2" index="2" disallow="tram rail_urban rail rail_electric rail_fast ship" speed="16.67" length="0.10" shape="880.51,1360.29 880.51,1360.29"/>
        <lane id=":1772207801_0_3" index="3" disallow="tram rail_urban rail rail_electric rail_fast ship" speed="16.67" length="0.10" shape="883.17,1358.51 883.17,1358.51"/>
    </edge>
    <edge id=":1772207801_4" function="internal">
        <lane id=":1772207801_4_0" index="0" disallow="tram rail_urban rail rail_electric rail_fast ship" speed="3.65" length="2.34" shape="883.17,1358.51 883.17,1357.07 883.61,1356.29"/>
    </edge>
    <edge id=":1772207801_10" function="internal">
        <lane id=":1772207801_10_0" index="0" disallow="tram rail_urban rail rail_electric rail_fast ship" speed="3.65" length="2.34" shape="883.61,1356.29 884.50,1356.18 885.83,1356.73"/>
    </edge>
    <edge id=":1772207801_5" function="internal">
        <lane id=":1772207801_5_0" index="0" disallow="tram rail_urban rail rail_electric rail_fast ship" speed="16.67" length="0.10" shape="893.81,1351.39 893.81,1351.39"/>
        <lane id=":1772207801_5_1" index="1" disallow="tram rail_urban rail rail_electric rail_fast ship" speed="16.67" length="0.10" shape="891.15,1353.17 891.15,1353.17"/>
        <lane id=":1772207801_5_2" index="2" disallow="tram rail_urban rail rail_electric rail_fast ship" speed="16.67" length="0.10" shape="888.49,1354.95 888.49,1354.95"/>
        <lane id=":1772207801_5_3" index="3" disallow="tram rail_urban rail rail_electric rail_fast ship" speed="16.67" length="0.10" shape="885.83,1356.73 885.83,1356.73"/>
    </edge>
    <edge id=":1772207801_9" function="internal">
        <lane id=":1772207801_9_0" index="0" disallow="tram rail_urban rail rail_electric rail_fast ship" speed="3.65" length="2.34" shape="885.83,1356.73 885.83,1358.17 885.39,1358.95"/>
    </edge>
    <edge id=":1772207801_11" function="internal">
        <lane id=":1772207801_11_0" index="0" disallow="tram rail_urban rail rail_electric rail_fast ship" speed="3.65" length="2.34" shape="885.39,1358.95 884.50,1359.06 883.17,1358.51"/>
    </edge>
    <edge id=":1772223700_0" function="internal">
        <lane id=":1772223700_0_0" index="0" disallow="tram rail_urban rail rail_electric rail_fast ship" speed="27.78" length="0.30" shape="1019.70,1346.41 1019.60,1346.69"/>
        <lane id=":1772223700_0_1" index="1" disallow="tram rail_urban rail rail_electric rail_fast ship" speed="27.78" length="0.30" shape="1016.67,1345.37 1016.57,1345.66"/>
        <lane id=":1772223700_0_2" index="2" disallow="tram rail_urban rail rail_electric rail_fast ship" speed="27.78" length="0.30" shape="1013.64,1344.34 1013.55,1344.62"/>
    </edge>
    <edge id=":1772223700_3" function="internal">
        <lane id=":1772223700_3_0" index="0" disallow="tram rail_urban rail rail_electric rail_fast ship" speed="3.65" length="2.34" shape="1013.64,1344.34 1012.50,1345.21 1011.61,1345.33"/>
    </edge>
    <edge id=":1772223700_8" function="internal">
        <lane id=":1772223700_8_0" index="0" disallow="tram rail_urban rail rail_electric rail_fast ship" speed="3.65" length="2.34" shape="1011.61,1345.33 1010.98,1344.69 1010.61,1343.30"/>
    </edge>
    <edge id=":1772223700_4" function="internal">
        <lane id=":1772223700_4_0" index="0" disallow="tram rail_urban rail rail_electric rail_fast ship" speed="27.78" length="0.30" shape="1004.46,1341.51 1004.56,1341.23"/>
        <lane id=":1772223700_4_1" index="1" disallow="tram rail_urban rail rail_electric rail_fast ship" speed="27.78" length="0.30" shape="1007.49,1342.55 1007.59,1342.26"/>
        <lane id=":1772223700_4_2" index="2" disallow="tram rail_urban rail rail_electric rail_fast ship" speed="27.78" length="0.30" shape="1010.52,1343.58 1010.61,1343.30"/>
    </edge>
    <edge id=":1772223700_7" function="internal">
        <lane id=":1772223700_7_0" index="0" disallow="tram rail_urban rail rail_electric rail_fast ship" speed="3.65" length="2.34" shape="1010.52,1343.58 1011.66,1342.71 1012.55,1342.59"/>
    </edge>
    <edge id=":1772223700_9" function="internal">
        <lane id=":1772223700_9_0" index="0" disallow="tram rail_urban rail rail_electric rail_fast ship" speed="3.65" length="2.34" shape="1012.55,1342.59 1013.18,1343.23 1013.55,1344.62"/>
    </edge>
    <edge id=":1772621816_0" function="internal">
        <lane id=":1772621816_0_0" index="0" disallow="tram rail_urban rail rail_electric rail_fast ship" speed="27.78" length="0.30" shape="1221.36,1425.78 1221.06,1425.79"/>
    </edge>
    <edge id=":1772621816_1" function="internal">
        <lane id=":1772621816_1_0" index="0" disallow="tram rail_urban rail rail_electric rail_fast ship" speed="3.65" length="2.34" shape="1221.36,1425.78 1220.14,1425.02 1219.71,1424.24"/>
    </edge>
    <edge id=":1772621816_4" function="internal">
        <lane id=":1772621816_4_0" index="0" disallow="tram rail_urban rail rail_electric rail_fast ship" speed="3.65" length="2.34" shape="1219.71,1424.24 1220.08,1423.42 1221.26,1422.59"/>
    </edge>
    <edge id=":1772621816_2" function="internal">
        <lane id=":1772621816_2_0" index="0" disallow="tram rail_urban rail rail_electric rail_fast ship" speed="27.78" length="0.30" shape="1220.96,1422.60 1221.26,1422.59"/>
    </edge>
    <edge id=":1772621816_3" function="internal">
        <lane id=":1772621816_3_0" index="0" disallow="tram rail_urban rail rail_electric rail_fast ship" speed="3.65" length="2.34" shape="1220.96,1422.60 1222.18,1423.36 1222.61,1424.14"/>
    </edge>
    <edge id=":1772621816_5" function="internal">
        <lane id=":1772621816_5_0" index="0" disallow="tram rail_urban rail rail_electric rail_fast ship" speed="3.65" length="2.34" shape="1222.61,1424.14 1222.24,1424.95 1221.06,1425.79"/>
    </edge>
    <edge id=":1772621859_0" function="internal">
        <lane id=":1772621859_0_0" index="0" disallow="tram rail_urban rail rail_electric rail_fast ship" speed="27.78" length="8.40" shape="1085.43,1438.77 1083.08,1439.65 1081.73,1440.98 1080.38,1442.31 1078.03,1443.19"/>
        <lane id=":1772621859_0_1" index="1" disallow="tram rail_urban rail rail_electric rail_fast ship" speed="27.78" length="8.40" shape="1085.43,1438.77 1077.53,1440.03"/>
    </edge>
    <edge id=":1772621859_2" function="internal">
        <lane id=":1772621859_2_0" index="0" disallow="tram rail_urban rail rail_electric rail_fast ship" speed="3.65" length="1.44" shape="1085.43,1438.77 1084.12,1438.17"/>
    </edge>
    <edge id=":1772621859_5" function="internal">
        <lane id=":1772621859_5_0" index="0" disallow="tram rail_urban rail rail_electric rail_fast ship" speed="3.65" length="3.23" shape="1084.12,1438.17 1083.60,1437.44 1083.87,1436.59 1084.93,1435.61"/>
    </edge>
    <edge id=":1772621859_3" function="internal">
        <lane id=":1772621859_3_0" index="0" disallow="tram rail_urban rail rail_electric rail_fast ship" speed="27.78" length="8.81" shape="1076.53,1433.71 1079.04,1433.81 1080.73,1434.66 1082.42,1435.51 1084.93,1435.61"/>
    </edge>
    <edge id=":1772621859_4" function="internal">
        <lane id=":1772621859_4_0" index="0" disallow="tram rail_urban rail rail_electric rail_fast ship" speed="3.65" length="1.44" shape="1077.03,1436.87 1078.34,1437.47"/>
    </edge>
    <edge id=":1772621859_6" function="internal">
        <lane id=":1772621859_6_0" index="0" disallow="tram rail_urban rail rail_electric rail_fast ship" speed="3.65" length="3.23" shape="1078.34,1437.47 1078.86,1438.20 1078.59,1439.05 1077.53,1440.03"/>
    </edge>
    <edge id=":1772621899_0" function="internal">
        <lane id=":1772621899_0_0" index="0" disallow="tram rail_urban rail rail_electric rail_fast ship" speed="27.78" length="8.43" shape="1049.29,1549.50 1047.14,1548.17 1045.26,1547.90 1043.39,1547.63 1041.26,1546.28"/>
        <lane id=":1772621899_0_1" index="1" disallow="tram rail_urban rail rail_electric rail_fast ship" speed="27.78" length="8.43" shape="1049.29,1549.50 1043.48,1543.98"/>
    </edge>
    <edge id=":1772621899_2" function="internal">
        <lane id=":1772621899_2_0" index="0" disallow="tram rail_urban rail rail_electric rail_fast ship" speed="3.65" length="4.09" shape="1049.29,1549.50 1048.96,1548.10 1049.22,1547.24 1050.06,1546.93 1050.91,1547.08"/>
    </edge>
    <edge id=":1772621899_5" function="internal">
        <lane id=":1772621899_5_0" index="0" disallow="tram rail_urban rail rail_electric rail_fast ship" speed="3.65" length="0.58" shape="1050.91,1547.08 1051.48,1547.17"/>
    </edge>
    <edge id=":1772621899_3" function="internal">
        <lane id=":1772621899_3_0" index="0" disallow="tram rail_urban rail rail_electric rail_fast ship" speed="27.78" length="10.82" shape="1050.13,1537.05 1051.38,1539.64 1050.82,1542.15 1050.25,1544.64 1051.48,1547.17"/>
    </edge>
    <edge id=":1772621899_4" function="internal">
        <lane id=":1772621899_4_0" index="0" disallow="tram rail_urban rail rail_electric rail_fast ship" speed="3.65" length="1.44" shape="1045.69,1541.67 1046.01,1543.08"/>
    </edge>
    <edge id=":1772621899_6" function="internal">
        <lane id=":1772621899_6_0" index="0" disallow="tram rail_urban rail rail_electric rail_fast ship" speed="3.65" length="3.23" shape="1046.01,1543.08 1045.74,1543.93 1044.90,1544.23 1043.48,1543.98"/>
    </edge>
    <edge id=":1772654473_0" function="internal">
        <lane id=":1772654473_0_0" index="0" disallow="tram rail_urban rail rail_electric rail_fast ship" speed="27.78" length="0.31" shape="1077.84,1576.44 1077.61,1576.22"/>
    </edge>
    <edge id=":1772654473_1" function="internal">
        <lane id=":1772654473_1_0" index="0" disallow="tram rail_urban rail rail_electric rail_fast ship" speed="3.65" length="2.34" shape="1077.84,1576.44 1077.49,1575.04 1077.74,1574.18"/>
    </edge>
    <edge id=":1772654473_4" function="internal">
        <lane id=":1772654473_4_0" index="0" disallow="tram rail_urban rail rail_electric rail_fast ship" speed="3.65" length="2.34" shape="1077.74,1574.18 1078.57,1573.86 1080.00,1574.08"/>
    </edge>
    <edge id=":1772654473_2" function="internal">
        <lane id=":1772654473_2_0" index="0" disallow="tram rail_urban rail rail_electric rail_fast ship" speed="27.78" length="0.26" shape="1079.80,1573.90 1080.00,1574.08"/>
    </edge>
    <edge id=":1772654473_3" function="internal">
        <lane id=":1772654473_3_0" index="0" disallow="tram rail_urban rail rail_electric rail_fast ship" speed="3.65" length="2.34" shape="1079.80,1573.90 1080.13,1575.30 1079.87,1576.16"/>
    </edge>
    <edge id=":1772654473_5" function="internal">
        <lane id=":1772654473_5_0" index="0" disallow="tram rail_urban rail rail_electric rail_fast ship" speed="3.65" length="2.34" shape="1079.87,1576.16 1079.03,1576.47 1077.61,1576.22"/>
    </edge>
    <edge id=":2860431565_0" function="internal">
        <lane id=":2860431565_0_0" index="0" disallow="tram rail_urban rail rail_electric rail_fast ship" speed="27.78" length="0.10" shape="1045.97,1269.62 1045.97,1269.62"/>
        <lane id=":2860431565_0_1" index="1" disallow="tram rail_urban rail rail_electric rail_fast ship" speed="27.78" length="0.10" shape="1042.94,1268.58 1042.94,1268.58"/>
        <lane id=":2860431565_0_2" index="2" disallow="tram rail_urban rail rail_electric rail_fast ship" speed="27.78" length="0.10" shape="1039.91,1267.55 1039.91,1267.55"/>
    </edge>
    <edge id=":2860431565_3" function="internal">
        <lane id=":2860431565_3_0" index="0" disallow="tram rail_urban rail rail_electric rail_fast ship" speed="3.65" length="2.34" shape="1039.91,1267.55 1038.77,1268.42 1037.88,1268.54"/>
    </edge>
    <edge id=":2860431565_8" function="internal">
        <lane id=":2860431565_8_0" index="0" disallow="tram rail_urban rail rail_electric rail_fast ship" speed="3.65" length="2.34" shape="1037.88,1268.54 1037.25,1267.91 1036.89,1266.51"/>
    </edge>
    <edge id=":2860431565_4" function="internal">
        <lane id=":2860431565_4_0" index="0" disallow="tram rail_urban rail rail_electric rail_fast ship" speed="27.78" length="0.10" shape="1030.83,1264.44 1030.83,1264.44"/>
        <lane id=":2860431565_4_1" index="1" disallow="tram rail_urban rail rail_electric rail_fast ship" speed="27.78" length="0.10" shape="1033.86,1265.48 1033.86,1265.48"/>
        <lane id=":2860431565_4_2" index="2" disallow="tram rail_urban rail rail_electric rail_fast ship" speed="27.78" length="0.10" shape="1036.89,1266.51 1036.89,1266.51"/>
    </edge>
    <edge id=":2860431565_7" function="internal">
        <lane id=":2860431565_7_0" index="0" disallow="tram rail_urban rail rail_electric rail_fast ship" speed="3.65" length="2.34" shape="1036.89,1266.51 1038.03,1265.64 1038.92,1265.52"/>
    </edge>
    <edge id=":2860431565_9" function="internal">
        <lane id=":2860431565_9_0" index="0" disallow="tram rail_urban rail rail_electric rail_fast ship" speed="3.65" length="2.34" shape="1038.92,1265.52 1039.55,1266.15 1039.91,1267.55"/>
    </edge>
    <edge id=":414663644_0" function="internal">
        <lane id=":414663644_0_0" index="0" disallow="tram rail_urban rail rail_electric rail_fast ship" speed="16.82" length="39.74" shape="970.84,1487.58 962.44,1481.12 953.55,1477.34 944.15,1476.24 934.26,1477.84"/>
        <lane id=":414663644_0_1" index="1" disallow="tram rail_urban rail rail_electric rail_fast ship" speed="17.51" length="43.10" shape="973.05,1485.27 963.96,1478.28 954.32,1474.20 944.12,1473.03 933.37,1474.76"/>
        <lane id=":414663644_0_2" index="2" disallow="tram rail_urban rail rail_electric rail_fast ship" speed="17.86" length="44.84" shape="973.05,1485.27 962.91,1477.13 952.77,1472.15 942.62,1470.34 932.48,1471.69"/>
    </edge>
    <edge id=":414663644_3" function="internal">
        <lane id=":414663644_3_0" index="0" disallow="tram rail_urban rail rail_electric rail_fast ship" speed="22.23" length="48.10" shape="975.27,1482.97 965.00,1472.61 956.04,1462.72 948.67,1453.92 943.18,1446.82"/>
        <lane id=":414663644_3_1" index="1" disallow="tram rail_urban rail rail_electric rail_fast ship" speed="22.23" length="48.10" shape="977.48,1480.66 967.27,1470.36 958.43,1460.62 951.19,1451.96 945.76,1444.92"/>
    </edge>
    <edge id=":414663644_5" function="internal">
        <lane id=":414663644_5_0" index="0" disallow="tram rail_urban rail rail_electric rail_fast ship" speed="16.64" length="51.08" shape="977.48,1480.66 967.76,1469.18 962.53,1457.73 961.80,1446.31 965.58,1434.91"/>
        <lane id=":414663644_5_1" index="1" disallow="tram rail_urban rail rail_electric rail_fast ship" speed="16.29" length="48.91" shape="977.48,1480.66 968.83,1470.14 964.44,1459.26 964.30,1448.02 968.41,1436.41"/>
        <lane id=":414663644_5_2" index="2" disallow="tram rail_urban rail rail_electric rail_fast ship" speed="15.94" length="46.80" shape="977.48,1480.66 969.91,1471.10 966.35,1460.79 966.79,1449.72 971.24,1437.91"/>
    </edge>
    <edge id=":414663644_8" function="internal">
        <lane id=":414663644_8_0" index="0" disallow="tram rail_urban rail rail_electric rail_fast ship" speed="6.19" length="11.60" shape="988.95,1466.56 984.97,1467.90 982.83,1469.54 982.55,1471.48 984.13,1473.73"/>
        <lane id=":414663644_8_1" index="1" disallow="tram rail_urban rail rail_electric rail_fast ship" speed="7.09" length="15.65" shape="988.95,1466.56 983.44,1468.38 980.44,1470.56 979.92,1473.12 981.91,1476.04"/>
        <lane id=":414663644_8_2" index="2" disallow="tram rail_urban rail rail_electric rail_fast ship" speed="7.88" length="19.72" shape="988.95,1466.56 981.92,1468.86 978.04,1471.59 977.29,1474.75 979.70,1478.35"/>
    </edge>
    <edge id=":414663644_11" function="internal">
        <lane id=":414663644_11_0" index="0" disallow="tram rail_urban rail rail_electric rail_fast ship" speed="16.96" length="39.78" shape="988.20,1463.45 978.36,1467.01 970.43,1472.49 964.41,1479.87 960.30,1489.15"/>
        <lane id=":414663644_11_1" index="1" disallow="tram rail_urban rail rail_electric rail_fast ship" speed="17.32" length="41.50" shape="988.20,1463.45 976.81,1467.28 967.86,1472.69 961.34,1479.67 957.24,1488.21"/>
        <lane id=":414663644_11_2" index="2" disallow="tram rail_urban rail rail_electric rail_fast ship" speed="17.69" length="43.31" shape="988.20,1463.45 975.26,1467.55 965.28,1472.89 958.26,1479.46 954.19,1487.27"/>
    </edge>
    <edge id=":414663644_14" function="internal">
        <lane id=":414663644_14_0" index="0" disallow="tram rail_urban rail rail_electric rail_fast ship" speed="20.84" length="55.98" shape="988.20,1463.45 934.26,1477.84"/>
        <lane id=":414663644_14_1" index="1" disallow="tram rail_urban rail rail_electric rail_fast ship" speed="20.84" length="55.98" shape="988.20,1463.45 933.37,1474.76"/>
        <lane id=":414663644_14_2" index="2" disallow="tram rail_urban rail rail_electric rail_fast ship" speed="20.84" length="55.98" shape="987.44,1460.34 932.48,1471.69"/>
    </edge>
    <edge id=":414663644_17" function="internal">
        <lane id=":414663644_17_0" index="0" disallow="tram rail_urban rail rail_electric rail_fast ship" speed="17.37" length="49.28" shape="987.44,1460.34 973.76,1462.14 961.83,1460.48 951.63,1455.38 943.18,1446.82"/>
        <lane id=":414663644_17_1" index="1" disallow="tram rail_urban rail rail_electric rail_fast ship" speed="16.70" length="45.51" shape="986.69,1457.23 973.99,1458.91 962.94,1457.43 953.53,1452.76 945.76,1444.92"/>
    </edge>
    <edge id=":414663644_19" function="internal">
        <lane id=":414663644_19_0" index="0" disallow="tram rail_urban rail rail_electric rail_fast ship" speed="10.64" length="40.26" shape="986.69,1457.23 975.27,1457.56 966.92,1453.23 963.18,1445.33 965.58,1434.91"/>
        <lane id=":414663644_19_1" index="1" disallow="tram rail_urban rail rail_electric rail_fast ship" speed="10.13" length="36.32" shape="986.69,1457.23 976.51,1457.42 969.24,1453.28 966.12,1445.91 968.41,1436.41"/>
        <lane id=":414663644_19_2" index="2" disallow="tram rail_urban rail rail_electric rail_fast ship" speed="9.60" length="32.44" shape="986.69,1457.23 977.74,1457.28 971.54,1453.34 969.06,1446.51 971.24,1437.91"/>
    </edge>
    <edge id=":414663644_22" function="internal">
        <lane id=":414663644_22_0" index="0" disallow="tram rail_urban rail rail_electric rail_fast ship" speed="13.28" length="32.26" shape="982.55,1443.90 978.92,1452.80 977.97,1460.75 979.71,1467.72 984.13,1473.73"/>
        <lane id=":414663644_22_1" index="1" disallow="tram rail_urban rail rail_electric rail_fast ship" speed="13.73" length="34.52" shape="982.55,1443.90 978.20,1454.05 976.64,1462.79 977.88,1470.12 981.91,1476.04"/>
        <lane id=":414663644_22_2" index="2" disallow="tram rail_urban rail rail_electric rail_fast ship" speed="14.18" length="36.85" shape="982.55,1443.90 977.48,1455.30 975.31,1464.84 976.05,1472.52 979.70,1478.35"/>
    </edge>
    <edge id=":414663644_25" function="internal">
        <lane id=":414663644_25_0" index="0" disallow="tram rail_urban rail rail_electric rail_fast ship" speed="22.23" length="51.17" shape="979.72,1442.40 973.36,1455.15 968.16,1467.03 963.88,1478.29 960.30,1489.15"/>
        <lane id=":414663644_25_1" index="1" disallow="tram rail_urban rail rail_electric rail_fast ship" speed="22.23" length="51.17" shape="979.72,1442.40 972.88,1455.00 966.63,1466.56 961.30,1477.49 957.24,1488.21"/>
        <lane id=":414663644_25_2" index="2" disallow="tram rail_urban rail rail_electric rail_fast ship" speed="22.23" length="51.17" shape="976.89,1440.90 970.02,1453.59 963.69,1465.34 958.28,1476.46 954.19,1487.27"/>
    </edge>
    <edge id=":414663644_28" function="internal">
        <lane id=":414663644_28_0" index="0" disallow="tram rail_urban rail rail_electric rail_fast ship" speed="20.84" length="57.95" shape="976.89,1440.90 968.46,1454.10 958.55,1464.66 947.14,1472.57 934.26,1477.84"/>
        <lane id=":414663644_28_1" index="1" disallow="tram rail_urban rail rail_electric rail_fast ship" speed="20.84" length="56.65" shape="976.89,1440.90 969.19,1452.44 959.37,1461.92 947.43,1469.37 933.37,1474.76"/>
        <lane id=":414663644_28_2" index="2" disallow="tram rail_urban rail rail_electric rail_fast ship" speed="20.84" length="55.45" shape="976.89,1440.90 969.91,1450.77 960.18,1459.19 947.71,1466.16 932.48,1471.69"/>
    </edge>
    <edge id=":414663644_31" function="internal">
        <lane id=":414663644_31_0" index="0" disallow="tram rail_urban rail rail_electric rail_fast ship" speed="11.40" length="40.13" shape="974.07,1439.41 967.23,1449.14 959.45,1454.29 951.26,1453.85 943.18,1446.82"/>